** sch_path: /home/ttuser/pj1/DSM_ANA.sch
**.subckt DSM_ANA SCK AIOSEL AIO VDD DVDD GND BITOUT
*.ipin SCK
*.ipin AIOSEL
*.iopin AIO
*.ipin VDD
*.ipin DVDD
*.ipin GND
*.opin BITOUT
V2 VDD GND 3.3
V3 SCK GND pulse 0 1.8 0 1000p 1000p {500n/2-1n} 500n
V4 IN GND pulse 0 2.5 0 40u 40u {40u/2-0.1n} 40u
V6 DVDD GND 1.8
V1 AIOSEL GND 0
x3 VDD COMP IB2 VREF INTEG GND comp3V3_v1
x2 VDD XQ COMP DAC CK GND DFF3V3_v1
x4 VDD DVDD CK SCK GND LVSHFTL2H_v1
x5 DVDD DAC BITOUT GND LVSHFTH2L_v1
x6 VDD BGR PTAT IB0 IB1 IB2 IB3 GND bgr3v3_v2
x1 VDD INTEG IB3 INOPA VREF GND opamp3V3_v2
x7 VDD AIO net1 PTAT BGR GND mux3V3_v1
XC2 INTEG INOPA sky130_fd_pr__cap_mim_m3_1 W=30 L=30 MF=2 m=2
XR3 DAC net2 GND sky130_fd_pr__res_xhigh_po_0p35 L=18 mult=1 m=1
XR2 INOPA net3 GND sky130_fd_pr__res_xhigh_po_0p35 L=18 mult=1 m=1
x10 VDD VREF IB1 VREF BGR GND opamp3V3_v2
x9 VDD DVDD net1 AIOSEL GND LVSHFTL2H_v1
x8 VDD IN IB0 IN PTAT GND opamp3V3_v2
XR1 GND GND GND sky130_fd_pr__res_xhigh_po_0p35 L=18 mult=1 m=1
XR4 GND GND GND sky130_fd_pr__res_xhigh_po_0p35 L=18 mult=1 m=1
XR5 net2 INOPA GND sky130_fd_pr__res_xhigh_po_0p35 L=18 mult=1 m=1
XR6 net3 IN GND sky130_fd_pr__res_xhigh_po_0p35 L=18 mult=1 m=1
XC1 INTEG INOPA sky130_fd_pr__cap_mim_m3_1 W=30 L=10 MF=1 m=1
**** begin user architecture code

** opencircuitdesign pdks install
.lib /home/ttuser/pdk/sky130A/libs.tech/ngspice/sky130.lib.spice ss




.option savecurrents
.option warn=1
.options gmin=1e-12
.options abstol=1e-12
.options reltol=1e-3
.temp 25
.control
  *save all
  *set nobreak
  *set numdgt=3

  tran 100p	40u
  write lvshift.raw

  plot V(INTEG)
  plot I(V2) I(V6)
  plot V(COMP) V(DAC)
  plot V(INOPA)
  plot V(CK) V(SCK)
  plot V(BITOUT) V(IN)
  plot V(AIO)
  plot V(VREF) V(IN)

.endc


**** end user architecture code
**.ends

* expanding   symbol:  /home/ttuser/TT_WORK/rel/comp3V3_v1.sym # of pins=6
** sym_path: /home/ttuser/TT_WORK/rel/comp3V3_v1.sym
** sch_path: /home/ttuser/TT_WORK/rel/comp3V3_v1.sch
.subckt comp3V3_v1 VDD VO I30U VINM VINP GND
*.ipin VDD
*.ipin GND
*.ipin VINM
*.ipin VINP
*.opin VO
*.ipin I30U
XMP_I Va I30U VDD VDD sky130_fd_pr__pfet_g5v0d10v5 L=1 W=8 nf=1 ad='int((nf+1)/2) * W/nf * 0.29' as='int((nf+2)/2) * W/nf * 0.29' pd='2*int((nf+1)/2) * (W/nf + 0.29)'
+ ps='2*int((nf+2)/2) * (W/nf + 0.29)' nrd='0.29 / W' nrs='0.29 / W' sa=0 sb=0 sd=0 mult=1 m=1
XMP_INM net1 VINM Va VDD sky130_fd_pr__pfet_g5v0d10v5 L=2 W=8 nf=1 ad='int((nf+1)/2) * W/nf * 0.29' as='int((nf+2)/2) * W/nf * 0.29'
+ pd='2*int((nf+1)/2) * (W/nf + 0.29)' ps='2*int((nf+2)/2) * (W/nf + 0.29)' nrd='0.29 / W' nrs='0.29 / W' sa=0 sb=0 sd=0 mult=1 m=1
XMP_INP VOO VINP Va VDD sky130_fd_pr__pfet_g5v0d10v5 L=2 W=8 nf=1 ad='int((nf+1)/2) * W/nf * 0.29' as='int((nf+2)/2) * W/nf * 0.29'
+ pd='2*int((nf+1)/2) * (W/nf + 0.29)' ps='2*int((nf+2)/2) * (W/nf + 0.29)' nrd='0.29 / W' nrs='0.29 / W' sa=0 sb=0 sd=0 mult=1 m=1
XMP_CM net1 net1 GND GND sky130_fd_pr__nfet_g5v0d10v5 L=2 W=4 nf=1 ad='int((nf+1)/2) * W/nf * 0.29' as='int((nf+2)/2) * W/nf * 0.29'
+ pd='2*int((nf+1)/2) * (W/nf + 0.29)' ps='2*int((nf+2)/2) * (W/nf + 0.29)' nrd='0.29 / W' nrs='0.29 / W' sa=0 sb=0 sd=0 mult=1 m=1
XMP_CP VOO net1 GND GND sky130_fd_pr__nfet_g5v0d10v5 L=2 W=4 nf=1 ad='int((nf+1)/2) * W/nf * 0.29' as='int((nf+2)/2) * W/nf * 0.29'
+ pd='2*int((nf+1)/2) * (W/nf + 0.29)' ps='2*int((nf+2)/2) * (W/nf + 0.29)' nrd='0.29 / W' nrs='0.29 / W' sa=0 sb=0 sd=0 mult=1 m=1
XMN_O VO VOO GND GND sky130_fd_pr__nfet_g5v0d10v5 L=1 W=4 nf=1 ad='int((nf+1)/2) * W/nf * 0.29' as='int((nf+2)/2) * W/nf * 0.29' pd='2*int((nf+1)/2) * (W/nf + 0.29)'
+ ps='2*int((nf+2)/2) * (W/nf + 0.29)' nrd='0.29 / W' nrs='0.29 / W' sa=0 sb=0 sd=0 mult=1 m=1
XMP_O0 VO VOO VDD VDD sky130_fd_pr__pfet_g5v0d10v5 L=1 W=8 nf=1 ad='int((nf+1)/2) * W/nf * 0.29' as='int((nf+2)/2) * W/nf * 0.29' pd='2*int((nf+1)/2) * (W/nf + 0.29)'
+ ps='2*int((nf+2)/2) * (W/nf + 0.29)' nrd='0.29 / W' nrs='0.29 / W' sa=0 sb=0 sd=0 mult=1 m=1
XMP_O1 VO VOO VDD VDD sky130_fd_pr__pfet_g5v0d10v5 L=1 W=8 nf=1 ad='int((nf+1)/2) * W/nf * 0.29' as='int((nf+2)/2) * W/nf * 0.29' pd='2*int((nf+1)/2) * (W/nf + 0.29)'
+ ps='2*int((nf+2)/2) * (W/nf + 0.29)' nrd='0.29 / W' nrs='0.29 / W' sa=0 sb=0 sd=0 mult=1 m=1
XMP_IIN I30U I30U VDD VDD sky130_fd_pr__pfet_g5v0d10v5 L=1 W=8 nf=1 ad='int((nf+1)/2) * W/nf * 0.29' as='int((nf+2)/2) * W/nf * 0.29'
+ pd='2*int((nf+1)/2) * (W/nf + 0.29)' ps='2*int((nf+2)/2) * (W/nf + 0.29)' nrd='0.29 / W' nrs='0.29 / W' sa=0 sb=0 sd=0 mult=1 m=1
XMN_O1 VO VOO GND GND sky130_fd_pr__nfet_g5v0d10v5 L=1 W=4 nf=1 ad='int((nf+1)/2) * W/nf * 0.29' as='int((nf+2)/2) * W/nf * 0.29' pd='2*int((nf+1)/2) * (W/nf + 0.29)'
+ ps='2*int((nf+2)/2) * (W/nf + 0.29)' nrd='0.29 / W' nrs='0.29 / W' sa=0 sb=0 sd=0 mult=1 m=1
XMPDMY1 VDD VDD VDD VDD sky130_fd_pr__pfet_g5v0d10v5 L=1 W=8 nf=1 ad='int((nf+1)/2) * W/nf * 0.29' as='int((nf+2)/2) * W/nf * 0.29'
+ pd='2*int((nf+1)/2) * (W/nf + 0.29)' ps='2*int((nf+2)/2) * (W/nf + 0.29)' nrd='0.29 / W' nrs='0.29 / W' sa=0 sb=0 sd=0 mult=1 m=1
XMNDMY0 GND GND GND GND sky130_fd_pr__nfet_g5v0d10v5 L=2 W=4 nf=1 ad='int((nf+1)/2) * W/nf * 0.29' as='int((nf+2)/2) * W/nf * 0.29'
+ pd='2*int((nf+1)/2) * (W/nf + 0.29)' ps='2*int((nf+2)/2) * (W/nf + 0.29)' nrd='0.29 / W' nrs='0.29 / W' sa=0 sb=0 sd=0 mult=1 m=1
XMNDMY1 GND GND GND GND sky130_fd_pr__nfet_g5v0d10v5 L=1 W=4 nf=1 ad='int((nf+1)/2) * W/nf * 0.29' as='int((nf+2)/2) * W/nf * 0.29'
+ pd='2*int((nf+1)/2) * (W/nf + 0.29)' ps='2*int((nf+2)/2) * (W/nf + 0.29)' nrd='0.29 / W' nrs='0.29 / W' sa=0 sb=0 sd=0 mult=1 m=1
XMPDMY0 VDD VDD VDD VDD sky130_fd_pr__pfet_g5v0d10v5 L=2 W=8 nf=1 ad='int((nf+1)/2) * W/nf * 0.29' as='int((nf+2)/2) * W/nf * 0.29'
+ pd='2*int((nf+1)/2) * (W/nf + 0.29)' ps='2*int((nf+2)/2) * (W/nf + 0.29)' nrd='0.29 / W' nrs='0.29 / W' sa=0 sb=0 sd=0 mult=1 m=1
.ends


* expanding   symbol:  /home/ttuser/TT_WORK/rel/DFF3V3_v1.sym # of pins=6
** sym_path: /home/ttuser/TT_WORK/rel/DFF3V3_v1.sym
** sch_path: /home/ttuser/TT_WORK/rel/DFF3V3_v1.sch
.subckt DFF3V3_v1 VDD XQ DATA Q CKP GND
*.ipin VDD
*.ipin DATA
*.ipin GND
*.ipin CKP
*.opin XQ
*.opin Q
XMNCK0 xck CKP GND GND sky130_fd_pr__nfet_g5v0d10v5 L=0.5 W=1 nf=1 ad='int((nf+1)/2) * W/nf * 0.29' as='int((nf+2)/2) * W/nf * 0.29'
+ pd='2*int((nf+1)/2) * (W/nf + 0.29)' ps='2*int((nf+2)/2) * (W/nf + 0.29)' nrd='0.29 / W' nrs='0.29 / W' sa=0 sb=0 sd=0 mult=1 m=1
XMPCK0 xck CKP VDD VDD sky130_fd_pr__pfet_g5v0d10v5 L=0.5 W=2 nf=1 ad='int((nf+1)/2) * W/nf * 0.29' as='int((nf+2)/2) * W/nf * 0.29'
+ pd='2*int((nf+1)/2) * (W/nf + 0.29)' ps='2*int((nf+2)/2) * (W/nf + 0.29)' nrd='0.29 / W' nrs='0.29 / W' sa=0 sb=0 sd=0 mult=1 m=1
XMNCK1 ck xck GND GND sky130_fd_pr__nfet_g5v0d10v5 L=0.5 W=1 nf=1 ad='int((nf+1)/2) * W/nf * 0.29' as='int((nf+2)/2) * W/nf * 0.29'
+ pd='2*int((nf+1)/2) * (W/nf + 0.29)' ps='2*int((nf+2)/2) * (W/nf + 0.29)' nrd='0.29 / W' nrs='0.29 / W' sa=0 sb=0 sd=0 mult=1 m=1
XMPCK1 ck xck VDD VDD sky130_fd_pr__pfet_g5v0d10v5 L=0.5 W=2 nf=1 ad='int((nf+1)/2) * W/nf * 0.29' as='int((nf+2)/2) * W/nf * 0.29'
+ pd='2*int((nf+1)/2) * (W/nf + 0.29)' ps='2*int((nf+2)/2) * (W/nf + 0.29)' nrd='0.29 / W' nrs='0.29 / W' sa=0 sb=0 sd=0 mult=1 m=1
XMPT00 net2 ck net1 VDD sky130_fd_pr__pfet_g5v0d10v5 L=0.5 W=2 nf=1 ad='int((nf+1)/2) * W/nf * 0.29' as='int((nf+2)/2) * W/nf * 0.29'
+ pd='2*int((nf+1)/2) * (W/nf + 0.29)' ps='2*int((nf+2)/2) * (W/nf + 0.29)' nrd='0.29 / W' nrs='0.29 / W' sa=0 sb=0 sd=0 mult=1 m=1
XMNT00 net1 xck net2 GND sky130_fd_pr__nfet_g5v0d10v5 L=0.5 W=1 nf=1 ad='int((nf+1)/2) * W/nf * 0.29' as='int((nf+2)/2) * W/nf * 0.29'
+ pd='2*int((nf+1)/2) * (W/nf + 0.29)' ps='2*int((nf+2)/2) * (W/nf + 0.29)' nrd='0.29 / W' nrs='0.29 / W' sa=0 sb=0 sd=0 mult=1 m=1
XMN00 hold net2 GND GND sky130_fd_pr__nfet_g5v0d10v5 L=0.5 W=1 nf=1 ad='int((nf+1)/2) * W/nf * 0.29' as='int((nf+2)/2) * W/nf * 0.29'
+ pd='2*int((nf+1)/2) * (W/nf + 0.29)' ps='2*int((nf+2)/2) * (W/nf + 0.29)' nrd='0.29 / W' nrs='0.29 / W' sa=0 sb=0 sd=0 mult=1 m=1
XMP00 hold net2 VDD VDD sky130_fd_pr__pfet_g5v0d10v5 L=0.5 W=2 nf=1 ad='int((nf+1)/2) * W/nf * 0.29' as='int((nf+2)/2) * W/nf * 0.29'
+ pd='2*int((nf+1)/2) * (W/nf + 0.29)' ps='2*int((nf+2)/2) * (W/nf + 0.29)' nrd='0.29 / W' nrs='0.29 / W' sa=0 sb=0 sd=0 mult=1 m=1
XMN01 net3 hold GND GND sky130_fd_pr__nfet_g5v0d10v5 L=0.5 W=1 nf=1 ad='int((nf+1)/2) * W/nf * 0.29' as='int((nf+2)/2) * W/nf * 0.29'
+ pd='2*int((nf+1)/2) * (W/nf + 0.29)' ps='2*int((nf+2)/2) * (W/nf + 0.29)' nrd='0.29 / W' nrs='0.29 / W' sa=0 sb=0 sd=0 mult=1 m=1
XMP01 net3 hold VDD VDD sky130_fd_pr__pfet_g5v0d10v5 L=0.5 W=2 nf=1 ad='int((nf+1)/2) * W/nf * 0.29' as='int((nf+2)/2) * W/nf * 0.29'
+ pd='2*int((nf+1)/2) * (W/nf + 0.29)' ps='2*int((nf+2)/2) * (W/nf + 0.29)' nrd='0.29 / W' nrs='0.29 / W' sa=0 sb=0 sd=0 mult=1 m=1
XMPT01 net3 xck net2 VDD sky130_fd_pr__pfet_g5v0d10v5 L=0.5 W=2 nf=1 ad='int((nf+1)/2) * W/nf * 0.29' as='int((nf+2)/2) * W/nf * 0.29'
+ pd='2*int((nf+1)/2) * (W/nf + 0.29)' ps='2*int((nf+2)/2) * (W/nf + 0.29)' nrd='0.29 / W' nrs='0.29 / W' sa=0 sb=0 sd=0 mult=1 m=1
XMNT01 net2 ck net3 GND sky130_fd_pr__nfet_g5v0d10v5 L=0.5 W=1 nf=1 ad='int((nf+1)/2) * W/nf * 0.29' as='int((nf+2)/2) * W/nf * 0.29'
+ pd='2*int((nf+1)/2) * (W/nf + 0.29)' ps='2*int((nf+2)/2) * (W/nf + 0.29)' nrd='0.29 / W' nrs='0.29 / W' sa=0 sb=0 sd=0 mult=1 m=1
XMPT10 net4 xck hold VDD sky130_fd_pr__pfet_g5v0d10v5 L=0.5 W=2 nf=1 ad='int((nf+1)/2) * W/nf * 0.29' as='int((nf+2)/2) * W/nf * 0.29'
+ pd='2*int((nf+1)/2) * (W/nf + 0.29)' ps='2*int((nf+2)/2) * (W/nf + 0.29)' nrd='0.29 / W' nrs='0.29 / W' sa=0 sb=0 sd=0 mult=1 m=1
XMNT10 hold ck net4 GND sky130_fd_pr__nfet_g5v0d10v5 L=0.5 W=1 nf=1 ad='int((nf+1)/2) * W/nf * 0.29' as='int((nf+2)/2) * W/nf * 0.29'
+ pd='2*int((nf+1)/2) * (W/nf + 0.29)' ps='2*int((nf+2)/2) * (W/nf + 0.29)' nrd='0.29 / W' nrs='0.29 / W' sa=0 sb=0 sd=0 mult=1 m=1
XMN10 net5 net4 GND GND sky130_fd_pr__nfet_g5v0d10v5 L=0.5 W=1 nf=1 ad='int((nf+1)/2) * W/nf * 0.29' as='int((nf+2)/2) * W/nf * 0.29'
+ pd='2*int((nf+1)/2) * (W/nf + 0.29)' ps='2*int((nf+2)/2) * (W/nf + 0.29)' nrd='0.29 / W' nrs='0.29 / W' sa=0 sb=0 sd=0 mult=1 m=1
XMP10 net5 net4 VDD VDD sky130_fd_pr__pfet_g5v0d10v5 L=0.5 W=2 nf=1 ad='int((nf+1)/2) * W/nf * 0.29' as='int((nf+2)/2) * W/nf * 0.29'
+ pd='2*int((nf+1)/2) * (W/nf + 0.29)' ps='2*int((nf+2)/2) * (W/nf + 0.29)' nrd='0.29 / W' nrs='0.29 / W' sa=0 sb=0 sd=0 mult=1 m=1
XMNT11 net6 net5 GND GND sky130_fd_pr__nfet_g5v0d10v5 L=0.5 W=1 nf=1 ad='int((nf+1)/2) * W/nf * 0.29' as='int((nf+2)/2) * W/nf * 0.29'
+ pd='2*int((nf+1)/2) * (W/nf + 0.29)' ps='2*int((nf+2)/2) * (W/nf + 0.29)' nrd='0.29 / W' nrs='0.29 / W' sa=0 sb=0 sd=0 mult=1 m=1
XMP11 net6 net5 VDD VDD sky130_fd_pr__pfet_g5v0d10v5 L=0.5 W=2 nf=1 ad='int((nf+1)/2) * W/nf * 0.29' as='int((nf+2)/2) * W/nf * 0.29'
+ pd='2*int((nf+1)/2) * (W/nf + 0.29)' ps='2*int((nf+2)/2) * (W/nf + 0.29)' nrd='0.29 / W' nrs='0.29 / W' sa=0 sb=0 sd=0 mult=1 m=1
XMPT11 net6 ck net4 VDD sky130_fd_pr__pfet_g5v0d10v5 L=0.5 W=2 nf=1 ad='int((nf+1)/2) * W/nf * 0.29' as='int((nf+2)/2) * W/nf * 0.29'
+ pd='2*int((nf+1)/2) * (W/nf + 0.29)' ps='2*int((nf+2)/2) * (W/nf + 0.29)' nrd='0.29 / W' nrs='0.29 / W' sa=0 sb=0 sd=0 mult=1 m=1
XMNT1 net4 xck net6 GND sky130_fd_pr__nfet_g5v0d10v5 L=0.5 W=1 nf=1 ad='int((nf+1)/2) * W/nf * 0.29' as='int((nf+2)/2) * W/nf * 0.29'
+ pd='2*int((nf+1)/2) * (W/nf + 0.29)' ps='2*int((nf+2)/2) * (W/nf + 0.29)' nrd='0.29 / W' nrs='0.29 / W' sa=0 sb=0 sd=0 mult=1 m=1
XMNXQ XQ net6 GND GND sky130_fd_pr__nfet_g5v0d10v5 L=0.5 W=1 nf=1 ad='int((nf+1)/2) * W/nf * 0.29' as='int((nf+2)/2) * W/nf * 0.29'
+ pd='2*int((nf+1)/2) * (W/nf + 0.29)' ps='2*int((nf+2)/2) * (W/nf + 0.29)' nrd='0.29 / W' nrs='0.29 / W' sa=0 sb=0 sd=0 mult=1 m=1
XMPXQ XQ net6 VDD VDD sky130_fd_pr__pfet_g5v0d10v5 L=0.5 W=2 nf=1 ad='int((nf+1)/2) * W/nf * 0.29' as='int((nf+2)/2) * W/nf * 0.29'
+ pd='2*int((nf+1)/2) * (W/nf + 0.29)' ps='2*int((nf+2)/2) * (W/nf + 0.29)' nrd='0.29 / W' nrs='0.29 / W' sa=0 sb=0 sd=0 mult=1 m=1
XMNQ0 Q XQ GND GND sky130_fd_pr__nfet_g5v0d10v5 L=0.5 W=1 nf=1 ad='int((nf+1)/2) * W/nf * 0.29' as='int((nf+2)/2) * W/nf * 0.29' pd='2*int((nf+1)/2) * (W/nf + 0.29)'
+ ps='2*int((nf+2)/2) * (W/nf + 0.29)' nrd='0.29 / W' nrs='0.29 / W' sa=0 sb=0 sd=0 mult=1 m=1
XMPQ0 Q XQ VDD VDD sky130_fd_pr__pfet_g5v0d10v5 L=0.5 W=2 nf=1 ad='int((nf+1)/2) * W/nf * 0.29' as='int((nf+2)/2) * W/nf * 0.29' pd='2*int((nf+1)/2) * (W/nf + 0.29)'
+ ps='2*int((nf+2)/2) * (W/nf + 0.29)' nrd='0.29 / W' nrs='0.29 / W' sa=0 sb=0 sd=0 mult=1 m=1
XMND net1 DATA GND GND sky130_fd_pr__nfet_g5v0d10v5 L=0.5 W=1 nf=1 ad='int((nf+1)/2) * W/nf * 0.29' as='int((nf+2)/2) * W/nf * 0.29'
+ pd='2*int((nf+1)/2) * (W/nf + 0.29)' ps='2*int((nf+2)/2) * (W/nf + 0.29)' nrd='0.29 / W' nrs='0.29 / W' sa=0 sb=0 sd=0 mult=1 m=1
XMPD net1 DATA VDD VDD sky130_fd_pr__pfet_g5v0d10v5 L=0.5 W=2 nf=1 ad='int((nf+1)/2) * W/nf * 0.29' as='int((nf+2)/2) * W/nf * 0.29'
+ pd='2*int((nf+1)/2) * (W/nf + 0.29)' ps='2*int((nf+2)/2) * (W/nf + 0.29)' nrd='0.29 / W' nrs='0.29 / W' sa=0 sb=0 sd=0 mult=1 m=1
XMNQ1 Q XQ GND GND sky130_fd_pr__nfet_g5v0d10v5 L=0.5 W=1 nf=1 ad='int((nf+1)/2) * W/nf * 0.29' as='int((nf+2)/2) * W/nf * 0.29' pd='2*int((nf+1)/2) * (W/nf + 0.29)'
+ ps='2*int((nf+2)/2) * (W/nf + 0.29)' nrd='0.29 / W' nrs='0.29 / W' sa=0 sb=0 sd=0 mult=1 m=1
XMNQ2 Q XQ GND GND sky130_fd_pr__nfet_g5v0d10v5 L=0.5 W=1 nf=1 ad='int((nf+1)/2) * W/nf * 0.29' as='int((nf+2)/2) * W/nf * 0.29' pd='2*int((nf+1)/2) * (W/nf + 0.29)'
+ ps='2*int((nf+2)/2) * (W/nf + 0.29)' nrd='0.29 / W' nrs='0.29 / W' sa=0 sb=0 sd=0 mult=1 m=1
XMPQ1 Q XQ VDD VDD sky130_fd_pr__pfet_g5v0d10v5 L=0.5 W=2 nf=1 ad='int((nf+1)/2) * W/nf * 0.29' as='int((nf+2)/2) * W/nf * 0.29' pd='2*int((nf+1)/2) * (W/nf + 0.29)'
+ ps='2*int((nf+2)/2) * (W/nf + 0.29)' nrd='0.29 / W' nrs='0.29 / W' sa=0 sb=0 sd=0 mult=1 m=1
XMPQ2 Q XQ VDD VDD sky130_fd_pr__pfet_g5v0d10v5 L=0.5 W=2 nf=1 ad='int((nf+1)/2) * W/nf * 0.29' as='int((nf+2)/2) * W/nf * 0.29' pd='2*int((nf+1)/2) * (W/nf + 0.29)'
+ ps='2*int((nf+2)/2) * (W/nf + 0.29)' nrd='0.29 / W' nrs='0.29 / W' sa=0 sb=0 sd=0 mult=1 m=1
XMPQ3 Q XQ VDD VDD sky130_fd_pr__pfet_g5v0d10v5 L=0.5 W=2 nf=1 ad='int((nf+1)/2) * W/nf * 0.29' as='int((nf+2)/2) * W/nf * 0.29' pd='2*int((nf+1)/2) * (W/nf + 0.29)'
+ ps='2*int((nf+2)/2) * (W/nf + 0.29)' nrd='0.29 / W' nrs='0.29 / W' sa=0 sb=0 sd=0 mult=1 m=1
XMNQ3 Q XQ GND GND sky130_fd_pr__nfet_g5v0d10v5 L=0.5 W=1 nf=1 ad='int((nf+1)/2) * W/nf * 0.29' as='int((nf+2)/2) * W/nf * 0.29' pd='2*int((nf+1)/2) * (W/nf + 0.29)'
+ ps='2*int((nf+2)/2) * (W/nf + 0.29)' nrd='0.29 / W' nrs='0.29 / W' sa=0 sb=0 sd=0 mult=1 m=1
XMPT net7 net8 VDD VDD sky130_fd_pr__pfet_g5v0d10v5 L=6 W=1 nf=1 ad='int((nf+1)/2) * W/nf * 0.29' as='int((nf+2)/2) * W/nf * 0.29'
+ pd='2*int((nf+1)/2) * (W/nf + 0.29)' ps='2*int((nf+2)/2) * (W/nf + 0.29)' nrd='0.29 / W' nrs='0.29 / W' sa=0 sb=0 sd=0 mult=1 m=1
XMNT net8 net7 GND GND sky130_fd_pr__nfet_g5v0d10v5 L=6 W=1 nf=1 ad='int((nf+1)/2) * W/nf * 0.29' as='int((nf+2)/2) * W/nf * 0.29'
+ pd='2*int((nf+1)/2) * (W/nf + 0.29)' ps='2*int((nf+2)/2) * (W/nf + 0.29)' nrd='0.29 / W' nrs='0.29 / W' sa=0 sb=0 sd=0 mult=1 m=1
XMPT1 net7 net8 VDD VDD sky130_fd_pr__pfet_g5v0d10v5 L=6 W=1 nf=1 ad='int((nf+1)/2) * W/nf * 0.29' as='int((nf+2)/2) * W/nf * 0.29'
+ pd='2*int((nf+1)/2) * (W/nf + 0.29)' ps='2*int((nf+2)/2) * (W/nf + 0.29)' nrd='0.29 / W' nrs='0.29 / W' sa=0 sb=0 sd=0 mult=1 m=1
XMPT2 net7 net8 VDD VDD sky130_fd_pr__pfet_g5v0d10v5 L=6 W=1 nf=1 ad='int((nf+1)/2) * W/nf * 0.29' as='int((nf+2)/2) * W/nf * 0.29'
+ pd='2*int((nf+1)/2) * (W/nf + 0.29)' ps='2*int((nf+2)/2) * (W/nf + 0.29)' nrd='0.29 / W' nrs='0.29 / W' sa=0 sb=0 sd=0 mult=1 m=1
XMNT2 net8 net7 GND GND sky130_fd_pr__nfet_g5v0d10v5 L=6 W=1 nf=1 ad='int((nf+1)/2) * W/nf * 0.29' as='int((nf+2)/2) * W/nf * 0.29'
+ pd='2*int((nf+1)/2) * (W/nf + 0.29)' ps='2*int((nf+2)/2) * (W/nf + 0.29)' nrd='0.29 / W' nrs='0.29 / W' sa=0 sb=0 sd=0 mult=1 m=1
XMNT3 net8 net7 GND GND sky130_fd_pr__nfet_g5v0d10v5 L=6 W=1 nf=1 ad='int((nf+1)/2) * W/nf * 0.29' as='int((nf+2)/2) * W/nf * 0.29'
+ pd='2*int((nf+1)/2) * (W/nf + 0.29)' ps='2*int((nf+2)/2) * (W/nf + 0.29)' nrd='0.29 / W' nrs='0.29 / W' sa=0 sb=0 sd=0 mult=1 m=1
.ends


* expanding   symbol:  /home/ttuser/TT_WORK/rel/LVSHFTL2H_v1.sym # of pins=5
** sym_path: /home/ttuser/TT_WORK/rel/LVSHFTL2H_v1.sym
** sch_path: /home/ttuser/TT_WORK/rel/LVSHFTL2H_v1.sch
.subckt LVSHFTL2H_v1 AVDD DVDD OUT_A IN_D GND
*.opin OUT_A
*.ipin AVDD
*.ipin DVDD
*.ipin GND
*.ipin IN_D
XMNINP xout xxin GND GND sky130_fd_pr__nfet_g5v0d10v5 L=0.5 W=8 nf=1 ad='int((nf+1)/2) * W/nf * 0.29' as='int((nf+2)/2) * W/nf * 0.29'
+ pd='2*int((nf+1)/2) * (W/nf + 0.29)' ps='2*int((nf+2)/2) * (W/nf + 0.29)' nrd='0.29 / W' nrs='0.29 / W' sa=0 sb=0 sd=0 mult=1 m=1
XMNINM out xin GND GND sky130_fd_pr__nfet_g5v0d10v5 L=0.5 W=8 nf=1 ad='int((nf+1)/2) * W/nf * 0.29' as='int((nf+2)/2) * W/nf * 0.29'
+ pd='2*int((nf+1)/2) * (W/nf + 0.29)' ps='2*int((nf+2)/2) * (W/nf + 0.29)' nrd='0.29 / W' nrs='0.29 / W' sa=0 sb=0 sd=0 mult=1 m=1
XMPLM out xout net2 AVDD sky130_fd_pr__pfet_g5v0d10v5 L=0.5 W=1 nf=1 ad='int((nf+1)/2) * W/nf * 0.29' as='int((nf+2)/2) * W/nf * 0.29'
+ pd='2*int((nf+1)/2) * (W/nf + 0.29)' ps='2*int((nf+2)/2) * (W/nf + 0.29)' nrd='0.29 / W' nrs='0.29 / W' sa=0 sb=0 sd=0 mult=1 m=1
XMPLP xout out net1 AVDD sky130_fd_pr__pfet_g5v0d10v5 L=0.5 W=1 nf=1 ad='int((nf+1)/2) * W/nf * 0.29' as='int((nf+2)/2) * W/nf * 0.29'
+ pd='2*int((nf+1)/2) * (W/nf + 0.29)' ps='2*int((nf+2)/2) * (W/nf + 0.29)' nrd='0.29 / W' nrs='0.29 / W' sa=0 sb=0 sd=0 mult=1 m=1
XMPXENM net2 xen AVDD AVDD sky130_fd_pr__pfet_g5v0d10v5 L=0.5 W=1 nf=1 ad='int((nf+1)/2) * W/nf * 0.29' as='int((nf+2)/2) * W/nf * 0.29'
+ pd='2*int((nf+1)/2) * (W/nf + 0.29)' ps='2*int((nf+2)/2) * (W/nf + 0.29)' nrd='0.29 / W' nrs='0.29 / W' sa=0 sb=0 sd=0 mult=1 m=1
XMPXENP net1 xen AVDD AVDD sky130_fd_pr__pfet_g5v0d10v5 L=0.5 W=1 nf=1 ad='int((nf+1)/2) * W/nf * 0.29' as='int((nf+2)/2) * W/nf * 0.29'
+ pd='2*int((nf+1)/2) * (W/nf + 0.29)' ps='2*int((nf+2)/2) * (W/nf + 0.29)' nrd='0.29 / W' nrs='0.29 / W' sa=0 sb=0 sd=0 mult=1 m=1
XMNINV0 xin IN_D GND GND sky130_fd_pr__nfet_01v8_lvt L=0.35 W=1 nf=1 ad='int((nf+1)/2) * W/nf * 0.29' as='int((nf+2)/2) * W/nf * 0.29'
+ pd='2*int((nf+1)/2) * (W/nf + 0.29)' ps='2*int((nf+2)/2) * (W/nf + 0.29)' nrd='0.29 / W' nrs='0.29 / W' sa=0 sb=0 sd=0 mult=1 m=1
XMPINV0 xin IN_D DVDD DVDD sky130_fd_pr__pfet_01v8_lvt L=0.35 W=2 nf=1 ad='int((nf+1)/2) * W/nf * 0.29' as='int((nf+2)/2) * W/nf * 0.29'
+ pd='2*int((nf+1)/2) * (W/nf + 0.29)' ps='2*int((nf+2)/2) * (W/nf + 0.29)' nrd='0.29 / W' nrs='0.29 / W' sa=0 sb=0 sd=0 mult=1 m=1
XMNXENO xout xen GND GND sky130_fd_pr__nfet_g5v0d10v5 L=0.5 W=8 nf=1 ad='int((nf+1)/2) * W/nf * 0.29' as='int((nf+2)/2) * W/nf * 0.29'
+ pd='2*int((nf+1)/2) * (W/nf + 0.29)' ps='2*int((nf+2)/2) * (W/nf + 0.29)' nrd='0.29 / W' nrs='0.29 / W' sa=0 sb=0 sd=0 mult=1 m=1
XMNINP1 xout xxin GND GND sky130_fd_pr__nfet_g5v0d10v5 L=0.5 W=8 nf=1 ad='int((nf+1)/2) * W/nf * 0.29' as='int((nf+2)/2) * W/nf * 0.29'
+ pd='2*int((nf+1)/2) * (W/nf + 0.29)' ps='2*int((nf+2)/2) * (W/nf + 0.29)' nrd='0.29 / W' nrs='0.29 / W' sa=0 sb=0 sd=0 mult=1 m=1
XMNINM1 out xin GND GND sky130_fd_pr__nfet_g5v0d10v5 L=0.5 W=8 nf=1 ad='int((nf+1)/2) * W/nf * 0.29' as='int((nf+2)/2) * W/nf * 0.29'
+ pd='2*int((nf+1)/2) * (W/nf + 0.29)' ps='2*int((nf+2)/2) * (W/nf + 0.29)' nrd='0.29 / W' nrs='0.29 / W' sa=0 sb=0 sd=0 mult=1 m=1
XMNINV1 xxin xin GND GND sky130_fd_pr__nfet_01v8_lvt L=0.35 W=1 nf=1 ad='int((nf+1)/2) * W/nf * 0.29' as='int((nf+2)/2) * W/nf * 0.29'
+ pd='2*int((nf+1)/2) * (W/nf + 0.29)' ps='2*int((nf+2)/2) * (W/nf + 0.29)' nrd='0.29 / W' nrs='0.29 / W' sa=0 sb=0 sd=0 mult=1 m=1
XMPINV1 xxin xin DVDD DVDD sky130_fd_pr__pfet_01v8_lvt L=0.35 W=2 nf=1 ad='int((nf+1)/2) * W/nf * 0.29' as='int((nf+2)/2) * W/nf * 0.29'
+ pd='2*int((nf+1)/2) * (W/nf + 0.29)' ps='2*int((nf+2)/2) * (W/nf + 0.29)' nrd='0.29 / W' nrs='0.29 / W' sa=0 sb=0 sd=0 mult=1 m=1
XRPWGD xpwgd AVDD GND sky130_fd_pr__res_xhigh_po_0p35 L=8 mult=1 m=1
XMNPWGD xpwgd net3 GND GND sky130_fd_pr__nfet_g5v0d10v5 L=0.5 W=8 nf=1 ad='int((nf+1)/2) * W/nf * 0.29' as='int((nf+2)/2) * W/nf * 0.29'
+ pd='2*int((nf+1)/2) * (W/nf + 0.29)' ps='2*int((nf+2)/2) * (W/nf + 0.29)' nrd='0.29 / W' nrs='0.29 / W' sa=0 sb=0 sd=0 mult=1 m=1
XMPO0 OUT_A xout AVDD AVDD sky130_fd_pr__pfet_g5v0d10v5 L=0.5 W=2 nf=1 ad='int((nf+1)/2) * W/nf * 0.29' as='int((nf+2)/2) * W/nf * 0.29'
+ pd='2*int((nf+1)/2) * (W/nf + 0.29)' ps='2*int((nf+2)/2) * (W/nf + 0.29)' nrd='0.29 / W' nrs='0.29 / W' sa=0 sb=0 sd=0 mult=1 m=1
XMNO OUT_A xout GND GND sky130_fd_pr__nfet_g5v0d10v5 L=0.5 W=4 nf=1 ad='int((nf+1)/2) * W/nf * 0.29' as='int((nf+2)/2) * W/nf * 0.29'
+ pd='2*int((nf+1)/2) * (W/nf + 0.29)' ps='2*int((nf+2)/2) * (W/nf + 0.29)' nrd='0.29 / W' nrs='0.29 / W' sa=0 sb=0 sd=0 mult=1 m=1
XMNEN0 en xpwgd GND GND sky130_fd_pr__nfet_g5v0d10v5 L=2 W=1 nf=1 ad='int((nf+1)/2) * W/nf * 0.29' as='int((nf+2)/2) * W/nf * 0.29'
+ pd='2*int((nf+1)/2) * (W/nf + 0.29)' ps='2*int((nf+2)/2) * (W/nf + 0.29)' nrd='0.29 / W' nrs='0.29 / W' sa=0 sb=0 sd=0 mult=1 m=1
XMPEN0 en xpwgd AVDD AVDD sky130_fd_pr__pfet_g5v0d10v5 L=0.5 W=2 nf=1 ad='int((nf+1)/2) * W/nf * 0.29' as='int((nf+2)/2) * W/nf * 0.29'
+ pd='2*int((nf+1)/2) * (W/nf + 0.29)' ps='2*int((nf+2)/2) * (W/nf + 0.29)' nrd='0.29 / W' nrs='0.29 / W' sa=0 sb=0 sd=0 mult=1 m=1
XMPEN1 xen en AVDD AVDD sky130_fd_pr__pfet_g5v0d10v5 L=2 W=1 nf=1 ad='int((nf+1)/2) * W/nf * 0.29' as='int((nf+2)/2) * W/nf * 0.29'
+ pd='2*int((nf+1)/2) * (W/nf + 0.29)' ps='2*int((nf+2)/2) * (W/nf + 0.29)' nrd='0.29 / W' nrs='0.29 / W' sa=0 sb=0 sd=0 mult=1 m=1
XMNEN1 xen en GND GND sky130_fd_pr__nfet_g5v0d10v5 L=0.5 W=2 nf=1 ad='int((nf+1)/2) * W/nf * 0.29' as='int((nf+2)/2) * W/nf * 0.29'
+ pd='2*int((nf+1)/2) * (W/nf + 0.29)' ps='2*int((nf+2)/2) * (W/nf + 0.29)' nrd='0.29 / W' nrs='0.29 / W' sa=0 sb=0 sd=0 mult=1 m=1
XMPO1 OUT_A xout AVDD AVDD sky130_fd_pr__pfet_g5v0d10v5 L=0.5 W=2 nf=1 ad='int((nf+1)/2) * W/nf * 0.29' as='int((nf+2)/2) * W/nf * 0.29'
+ pd='2*int((nf+1)/2) * (W/nf + 0.29)' ps='2*int((nf+2)/2) * (W/nf + 0.29)' nrd='0.29 / W' nrs='0.29 / W' sa=0 sb=0 sd=0 mult=1 m=1
XMPO2 OUT_A xout AVDD AVDD sky130_fd_pr__pfet_g5v0d10v5 L=0.5 W=2 nf=1 ad='int((nf+1)/2) * W/nf * 0.29' as='int((nf+2)/2) * W/nf * 0.29'
+ pd='2*int((nf+1)/2) * (W/nf + 0.29)' ps='2*int((nf+2)/2) * (W/nf + 0.29)' nrd='0.29 / W' nrs='0.29 / W' sa=0 sb=0 sd=0 mult=1 m=1
XRTIE DVDD net3 GND sky130_fd_pr__res_xhigh_po_0p35 L=8 mult=1 m=1
XRDMY GND GND GND sky130_fd_pr__res_xhigh_po_0p35 L=8 mult=1 m=1
.ends


* expanding   symbol:  /home/ttuser/TT_WORK/rel/LVSHFTH2L_v1.sym # of pins=4
** sym_path: /home/ttuser/TT_WORK/rel/LVSHFTH2L_v1.sym
** sch_path: /home/ttuser/TT_WORK/rel/LVSHFTH2L_v1.sch
.subckt LVSHFTH2L_v1 DVDD IN_A OUT_D GND
*.ipin IN_A
*.ipin DVDD
*.ipin GND
*.opin OUT_D
XMNI xout IN_A GND GND sky130_fd_pr__nfet_g5v0d10v5 L=0.5 W=2 nf=1 ad='int((nf+1)/2) * W/nf * 0.29' as='int((nf+2)/2) * W/nf * 0.29'
+ pd='2*int((nf+1)/2) * (W/nf + 0.29)' ps='2*int((nf+2)/2) * (W/nf + 0.29)' nrd='0.29 / W' nrs='0.29 / W' sa=0 sb=0 sd=0 mult=1 m=1
XMPI xout IN_A DVDD DVDD sky130_fd_pr__pfet_g5v0d10v5 L=0.5 W=4 nf=1 ad='int((nf+1)/2) * W/nf * 0.29' as='int((nf+2)/2) * W/nf * 0.29'
+ pd='2*int((nf+1)/2) * (W/nf + 0.29)' ps='2*int((nf+2)/2) * (W/nf + 0.29)' nrd='0.29 / W' nrs='0.29 / W' sa=0 sb=0 sd=0 mult=1 m=1
XMNR0 IN_A net2 net1 GND sky130_fd_pr__nfet_g5v0d10v5 L=4 W=1 nf=1 ad='int((nf+1)/2) * W/nf * 0.29' as='int((nf+2)/2) * W/nf * 0.29'
+ pd='2*int((nf+1)/2) * (W/nf + 0.29)' ps='2*int((nf+2)/2) * (W/nf + 0.29)' nrd='0.29 / W' nrs='0.29 / W' sa=0 sb=0 sd=0 mult=1 m=1
XRTIEH net2 DVDD GND sky130_fd_pr__res_xhigh_po_0p35 L=2 mult=1 m=1
XMNR1 net1 net2 GND GND sky130_fd_pr__nfet_g5v0d10v5 L=4 W=1 nf=1 ad='int((nf+1)/2) * W/nf * 0.29' as='int((nf+2)/2) * W/nf * 0.29'
+ pd='2*int((nf+1)/2) * (W/nf + 0.29)' ps='2*int((nf+2)/2) * (W/nf + 0.29)' nrd='0.29 / W' nrs='0.29 / W' sa=0 sb=0 sd=0 mult=1 m=1
XMPO OUT_D xout DVDD DVDD sky130_fd_pr__pfet_01v8_lvt L=0.35 W=4 nf=1 ad='int((nf+1)/2) * W/nf * 0.29' as='int((nf+2)/2) * W/nf * 0.29'
+ pd='2*int((nf+1)/2) * (W/nf + 0.29)' ps='2*int((nf+2)/2) * (W/nf + 0.29)' nrd='0.29 / W' nrs='0.29 / W' sa=0 sb=0 sd=0 mult=1 m=1
XMNO OUT_D xout GND GND sky130_fd_pr__nfet_01v8_lvt L=0.15 W=2 nf=1 ad='int((nf+1)/2) * W/nf * 0.29' as='int((nf+2)/2) * W/nf * 0.29'
+ pd='2*int((nf+1)/2) * (W/nf + 0.29)' ps='2*int((nf+2)/2) * (W/nf + 0.29)' nrd='0.29 / W' nrs='0.29 / W' sa=0 sb=0 sd=0 mult=1 m=1
XRTIEH1 GND GND GND sky130_fd_pr__res_xhigh_po_0p35 L=2 mult=1 m=1
XRTIEH2 GND GND GND sky130_fd_pr__res_xhigh_po_0p35 L=2 mult=1 m=1
.ends


* expanding   symbol:  /home/ttuser/TT_WORK/rel/bgr3v3_v2.sym # of pins=8
** sym_path: /home/ttuser/TT_WORK/rel/bgr3v3_v2.sym
** sch_path: /home/ttuser/TT_WORK/rel/bgr3v3_v2.sch
.subckt bgr3v3_v2 VDD Vref Vptat IN30U_0 IN30U_1 IN30U_2 IN30U_3 GND
*.ipin VDD
*.ipin GND
*.opin Vref
*.opin Vptat
*.opin IN30U_0
*.opin IN30U_1
*.opin IN30U_2
*.opin IN30U_3
XQA GND GND vaa sky130_fd_pr__pnp_05v5_W3p40L3p40 m=1
XQB0 GND GND net1 sky130_fd_pr__pnp_05v5_W3p40L3p40 m=3
XRB net1 vbb GND sky130_fd_pr__res_xhigh_po_0p35 L=1 mult=1 m=1
XRef6 net2 net9 GND sky130_fd_pr__res_xhigh_po_0p35 L=1 mult=1 m=1
XQREF GND GND net2 sky130_fd_pr__pnp_05v5_W3p40L3p40 m=1
XqC1 GND VDD sky130_fd_pr__cap_mim_m3_1 W=30 L=30 MF=1 m=1
XRstart0 net10 vstart GND sky130_fd_pr__res_xhigh_po_0p35 L=1 mult=1 m=1
XRref5 net9 net11 GND sky130_fd_pr__res_xhigh_po_0p35 L=1 mult=1 m=1
XRref4 net11 net12 GND sky130_fd_pr__res_xhigh_po_0p35 L=1 mult=1 m=1
XRref3 net12 net13 GND sky130_fd_pr__res_xhigh_po_0p35 L=1 mult=1 m=1
XRref2 net13 net14 GND sky130_fd_pr__res_xhigh_po_0p35 L=1 mult=1 m=1
XRref1 net14 net15 GND sky130_fd_pr__res_xhigh_po_0p35 L=1 mult=1 m=1
XRref0 net15 Vref GND sky130_fd_pr__res_xhigh_po_0p35 L=1 mult=1 m=1
XRptat1 net16 net17 GND sky130_fd_pr__res_xhigh_po_0p35 L=1 mult=1 m=1
XRptat0 net17 Vptat GND sky130_fd_pr__res_xhigh_po_0p35 L=1 mult=1 m=1
XRstart1 net18 net10 GND sky130_fd_pr__res_xhigh_po_0p35 L=1 mult=1 m=1
XRstart2 net19 net18 GND sky130_fd_pr__res_xhigh_po_0p35 L=1 mult=1 m=1
XRstart3 net20 net19 GND sky130_fd_pr__res_xhigh_po_0p35 L=1 mult=1 m=1
XRstart4 net21 net20 GND sky130_fd_pr__res_xhigh_po_0p35 L=1 mult=1 m=1
XRstart5 net22 net21 GND sky130_fd_pr__res_xhigh_po_0p35 L=1 mult=1 m=1
XRstart6 net23 net22 GND sky130_fd_pr__res_xhigh_po_0p35 L=1 mult=1 m=1
XRstart7 net3 net23 GND sky130_fd_pr__res_xhigh_po_0p35 L=1 mult=1 m=1
XQB1 GND GND net1 sky130_fd_pr__pnp_05v5_W3p40L3p40 m=3
XQB2 GND GND net1 sky130_fd_pr__pnp_05v5_W3p40L3p40 m=1
XQB3 GND GND net1 sky130_fd_pr__pnp_05v5_W3p40L3p40 m=1
XQDMY0 GND GND GND sky130_fd_pr__pnp_05v5_W3p40L3p40 m=1
XQDMY1 GND GND GND sky130_fd_pr__pnp_05v5_W3p40L3p40 m=1
XRptat2 net24 net16 GND sky130_fd_pr__res_xhigh_po_0p35 L=1 mult=1 m=1
XRstart8 net3 net25 GND sky130_fd_pr__res_xhigh_po_0p35 L=1 mult=1 m=1
XRstart9 net25 net26 GND sky130_fd_pr__res_xhigh_po_0p35 L=1 mult=1 m=1
XRstart10 net26 net27 GND sky130_fd_pr__res_xhigh_po_0p35 L=1 mult=1 m=1
XRstart11 net27 GND GND sky130_fd_pr__res_xhigh_po_0p35 L=1 mult=1 m=1
XMPREF Vref pgate VDD VDD sky130_fd_pr__pfet_g5v0d10v5 L=1 W=8 nf=1 ad='int((nf+1)/2) * W/nf * 0.29' as='int((nf+2)/2) * W/nf * 0.29'
+ pd='2*int((nf+1)/2) * (W/nf + 0.29)' ps='2*int((nf+2)/2) * (W/nf + 0.29)' nrd='0.29 / W' nrs='0.29 / W' sa=0 sb=0 sd=0 mult=1 m=1
XMPB pgate pgate VDD VDD sky130_fd_pr__pfet_g5v0d10v5 L=1 W=8 nf=1 ad='int((nf+1)/2) * W/nf * 0.29' as='int((nf+2)/2) * W/nf * 0.29'
+ pd='2*int((nf+1)/2) * (W/nf + 0.29)' ps='2*int((nf+2)/2) * (W/nf + 0.29)' nrd='0.29 / W' nrs='0.29 / W' sa=0 sb=0 sd=0 mult=1 m=1
XMPA ngate pgate VDD VDD sky130_fd_pr__pfet_g5v0d10v5 L=1 W=8 nf=1 ad='int((nf+1)/2) * W/nf * 0.29' as='int((nf+2)/2) * W/nf * 0.29'
+ pd='2*int((nf+1)/2) * (W/nf + 0.29)' ps='2*int((nf+2)/2) * (W/nf + 0.29)' nrd='0.29 / W' nrs='0.29 / W' sa=0 sb=0 sd=0 mult=1 m=1
XMPPTAT0 Vptat pgate VDD VDD sky130_fd_pr__pfet_g5v0d10v5 L=1 W=8 nf=1 ad='int((nf+1)/2) * W/nf * 0.29' as='int((nf+2)/2) * W/nf * 0.29'
+ pd='2*int((nf+1)/2) * (W/nf + 0.29)' ps='2*int((nf+2)/2) * (W/nf + 0.29)' nrd='0.29 / W' nrs='0.29 / W' sa=0 sb=0 sd=0 mult=1 m=1
XMNB pgate ngate vbb GND sky130_fd_pr__nfet_g5v0d10v5 L=2 W=8 nf=1 ad='int((nf+1)/2) * W/nf * 0.29' as='int((nf+2)/2) * W/nf * 0.29'
+ pd='2*int((nf+1)/2) * (W/nf + 0.29)' ps='2*int((nf+2)/2) * (W/nf + 0.29)' nrd='0.29 / W' nrs='0.29 / W' sa=0 sb=0 sd=0 mult=1 m=1
XMNA ngate ngate vaa GND sky130_fd_pr__nfet_g5v0d10v5 L=2 W=8 nf=1 ad='int((nf+1)/2) * W/nf * 0.29' as='int((nf+2)/2) * W/nf * 0.29'
+ pd='2*int((nf+1)/2) * (W/nf + 0.29)' ps='2*int((nf+2)/2) * (W/nf + 0.29)' nrd='0.29 / W' nrs='0.29 / W' sa=0 sb=0 sd=0 mult=1 m=1
XMNSTASW pgate vstart2 GND GND sky130_fd_pr__nfet_g5v0d10v5 L=2 W=1 nf=1 ad='int((nf+1)/2) * W/nf * 0.29' as='int((nf+2)/2) * W/nf * 0.29'
+ pd='2*int((nf+1)/2) * (W/nf + 0.29)' ps='2*int((nf+2)/2) * (W/nf + 0.29)' nrd='0.29 / W' nrs='0.29 / W' sa=0 sb=0 sd=0 mult=1 m=1
XMNSTAINV vstart2 vstart GND GND sky130_fd_pr__nfet_g5v0d10v5 L=1 W=8 nf=1 ad='int((nf+1)/2) * W/nf * 0.29' as='int((nf+2)/2) * W/nf * 0.29'
+ pd='2*int((nf+1)/2) * (W/nf + 0.29)' ps='2*int((nf+2)/2) * (W/nf + 0.29)' nrd='0.29 / W' nrs='0.29 / W' sa=0 sb=0 sd=0 mult=2 m=2
XMPSTAINV vstart2 vstart VDD VDD sky130_fd_pr__pfet_g5v0d10v5 L=2 W=1 nf=1 ad='int((nf+1)/2) * W/nf * 0.29' as='int((nf+2)/2) * W/nf * 0.29'
+ pd='2*int((nf+1)/2) * (W/nf + 0.29)' ps='2*int((nf+2)/2) * (W/nf + 0.29)' nrd='0.29 / W' nrs='0.29 / W' sa=0 sb=0 sd=0 mult=1 m=1
XR30U GND Vbinm GND sky130_fd_pr__res_xhigh_po_0p35 L=11 mult=1 m=1
XMN30U net4 Vbio Vbinm GND sky130_fd_pr__nfet_g5v0d10v5 L=2 W=8 nf=1 ad='int((nf+1)/2) * W/nf * 0.29' as='int((nf+2)/2) * W/nf * 0.29'
+ pd='2*int((nf+1)/2) * (W/nf + 0.29)' ps='2*int((nf+2)/2) * (W/nf + 0.29)' nrd='0.29 / W' nrs='0.29 / W' sa=0 sb=0 sd=0 mult=1 m=1
XMN30U_0 net7 net7 GND GND sky130_fd_pr__nfet_g5v0d10v5 L=2 W=8 nf=1 ad='int((nf+1)/2) * W/nf * 0.29' as='int((nf+2)/2) * W/nf * 0.29'